scripts/redd_house_neighborhood_private.dss
Clear
New Circuit.redd_house_neighborhood basekv=2.4017771198288433 pu=1.0
Edit Vsource.Source bus1=bus0
New Line.L_0_1 bus1=bus0 bus2=bus1 r1=1e-06 x1=1e-06 r0=1e-06 x0=1e-06 length=1 units=km
New Line.L_1_2 bus1=bus1 bus2=bus2 r1=0.0232 x1=0.0475 r0=0.0232 x0=0.0475 length=1 units=km
New Line.L_2_3 bus1=bus2 bus2=bus3 r1=0.0441 x1=0.0447 r0=0.0441 x0=0.0447 length=1 units=km
New Line.L_2_4 bus1=bus2 bus2=bus4 r1=0.0629 x1=0.0638 r0=0.0629 x0=0.0638 length=1 units=km
New Line.L_2_5 bus1=bus2 bus2=bus5 r1=0.0174 x1=0.0356 r0=0.0174 x0=0.0356 length=1 units=km
New Line.L_4_6 bus1=bus4 bus2=bus6 r1=0.0503 x1=0.051 r0=0.0503 x0=0.051 length=1 units=km
New Line.L_4_7 bus1=bus4 bus2=bus7 r1=0.0818 x1=0.0829 r0=0.0818 x0=0.0829 length=1 units=km
New Line.L_7_8 bus1=bus7 bus2=bus8 r1=0.0629 x1=0.0638 r0=0.0629 x0=0.0638 length=1 units=km
New Line.L_5_9 bus1=bus5 bus2=bus9 r1=0.0116 x1=0.0238 r0=0.0116 x0=0.0238 length=1 units=km
New Line.L_9_10 bus1=bus9 bus2=bus10 r1=0.0566 x1=0.0574 r0=0.0566 x0=0.0574 length=1 units=km
New Line.L_9_11 bus1=bus9 bus2=bus11 r1=0.0566 x1=0.0574 r0=0.0566 x0=0.0574 length=1 units=km
New Line.L_9_12 bus1=bus9 bus2=bus12 r1=0.0174 x1=0.0356 r0=0.0174 x0=0.0356 length=1 units=km
New Line.L_11_13 bus1=bus11 bus2=bus13 r1=1e-06 x1=1e-06 r0=1e-06 x0=1e-06 length=1 units=km
New Line.L_13_14 bus1=bus13 bus2=bus14 r1=1e-06 x1=1e-06 r0=1e-06 x0=1e-06 length=1 units=km
New Line.L_12_15 bus1=bus12 bus2=bus15 r1=0.0378 x1=0.0383 r0=0.0378 x0=0.0383 length=1 units=km
New Line.L_12_16 bus1=bus12 bus2=bus16 r1=0.0478 x1=0.098 r0=0.0478 x0=0.098 length=1 units=km
New Line.L_14_17 bus1=bus14 bus2=bus17 r1=0.0629 x1=0.0638 r0=0.0629 x0=0.0638 length=1 units=km
New Line.L_14_18 bus1=bus14 bus2=bus18 r1=0.0629 x1=0.0638 r0=0.0629 x0=0.0638 length=1 units=km
New Line.L_19_20 bus1=bus19 bus2=bus20 r1=0.0944 x1=0.0957 r0=0.0944 x0=0.0957 length=1 units=km
New Line.L_19_21 bus1=bus19 bus2=bus21 r1=0.0881 x1=0.0893 r0=0.0881 x0=0.0893 length=1 units=km
New Line.L_16_22 bus1=bus16 bus2=bus22 r1=0.0629 x1=0.0638 r0=0.0629 x0=0.0638 length=1 units=km
New Line.L_16_23 bus1=bus16 bus2=bus23 r1=0.0174 x1=0.0356 r0=0.0174 x0=0.0356 length=1 units=km
New Line.L_22_24 bus1=bus22 bus2=bus24 r1=0.0818 x1=0.0829 r0=0.0818 x0=0.0829 length=1 units=km
New Line.L_23_25 bus1=bus23 bus2=bus25 r1=0.1322 x1=0.134 r0=0.1322 x0=0.134 length=1 units=km
New Line.L_23_26 bus1=bus23 bus2=bus26 r1=0.0145 x1=0.0297 r0=0.0145 x0=0.0297 length=1 units=km
New Line.L_26_27 bus1=bus26 bus2=bus27 r1=0.1385 x1=0.1404 r0=0.1385 x0=0.1404 length=1 units=km
New Line.L_26_28 bus1=bus26 bus2=bus28 r1=0.0159 x1=0.0327 r0=0.0159 x0=0.0327 length=1 units=km
New Line.L_28_29 bus1=bus28 bus2=bus29 r1=1e-06 x1=1e-06 r0=1e-06 x0=1e-06 length=1 units=km
New Line.L_29_30 bus1=bus29 bus2=bus30 r1=0.0203 x1=0.0455 r0=0.0203 x0=0.0455 length=1 units=km
New Line.L_28_31 bus1=bus28 bus2=bus31 r1=0.0116 x1=0.0238 r0=0.0116 x0=0.0238 length=1 units=km
New Line.L_30_32 bus1=bus30 bus2=bus32 r1=0.0159 x1=0.0358 r0=0.0159 x0=0.0358 length=1 units=km
New Line.L_30_33 bus1=bus30 bus2=bus33 r1=0.0566 x1=0.0574 r0=0.0566 x0=0.0574 length=1 units=km
New Line.L_32_34 bus1=bus32 bus2=bus34 r1=0.1259 x1=0.1276 r0=0.1259 x0=0.1276 length=1 units=km
New Line.L_31_35 bus1=bus31 bus2=bus35 r1=0.0174 x1=0.0356 r0=0.0174 x0=0.0356 length=1 units=km
New Line.L_35_36 bus1=bus35 bus2=bus36 r1=0.0203 x1=0.0416 r0=0.0203 x0=0.0416 length=1 units=km
New Line.L_36_37 bus1=bus36 bus2=bus37 r1=0.0116 x1=0.0238 r0=0.0116 x0=0.0238 length=1 units=km
New Line.L_33_38 bus1=bus33 bus2=bus38 r1=0.0755 x1=0.0766 r0=0.0755 x0=0.0766 length=1 units=km
New Line.L_15_19 bus1=bus15 bus2=bus19 r1=0.0252 x1=0.0255 r0=0.0252 x0=0.0255 length=1 units=km
New Line.L_39_40 bus1=bus39 bus2=bus40 r1=0.0377 x1=0.0845 r0=0.0377 x0=0.0845 length=1 units=km
New Line.L_39_41 bus1=bus39 bus2=bus41 r1=0.0145 x1=0.0297 r0=0.0145 x0=0.0297 length=1 units=km
New Line.L_40_42 bus1=bus40 bus2=bus42 r1=0.0755 x1=0.0766 r0=0.0755 x0=0.0766 length=1 units=km
New Line.L_40_43 bus1=bus40 bus2=bus43 r1=0.0629 x1=0.0638 r0=0.0629 x0=0.0638 length=1 units=km
New Line.L_43_44 bus1=bus43 bus2=bus44 r1=0.0818 x1=0.0829 r0=0.0818 x0=0.0829 length=1 units=km
New Line.L_41_45 bus1=bus41 bus2=bus45 r1=0.0818 x1=0.0829 r0=0.0818 x0=0.0829 length=1 units=km
New Line.L_41_46 bus1=bus41 bus2=bus46 r1=0.0145 x1=0.0297 r0=0.0145 x0=0.0297 length=1 units=km
New Line.L_46_47 bus1=bus46 bus2=bus47 r1=0.1259 x1=0.1276 r0=0.1259 x0=0.1276 length=1 units=km
New Line.L_46_48 bus1=bus46 bus2=bus48 r1=0.0116 x1=0.0238 r0=0.0116 x0=0.0238 length=1 units=km
New Line.L_48_49 bus1=bus48 bus2=bus49 r1=0.0503 x1=0.051 r0=0.0503 x0=0.051 length=1 units=km
New Line.L_48_50 bus1=bus48 bus2=bus50 r1=0.0145 x1=0.0297 r0=0.0145 x0=0.0297 length=1 units=km
New Line.L_49_51 bus1=bus49 bus2=bus51 r1=0.0755 x1=0.0766 r0=0.0755 x0=0.0766 length=1 units=km
New Line.L_50_52 bus1=bus50 bus2=bus52 r1=0.0087 x1=0.0178 r0=0.0087 x0=0.0178 length=1 units=km
New Line.L_50_53 bus1=bus50 bus2=bus53 r1=0.0145 x1=0.0297 r0=0.0145 x0=0.0297 length=1 units=km
New Line.L_53_54 bus1=bus53 bus2=bus54 r1=0.0145 x1=0.0297 r0=0.0145 x0=0.0297 length=1 units=km
New Line.L_54_55 bus1=bus54 bus2=bus55 r1=0.0145 x1=0.0297 r0=0.0145 x0=0.0297 length=1 units=km
New Line.L_56_57 bus1=bus56 bus2=bus57 r1=0.0116 x1=0.0238 r0=0.0116 x0=0.0238 length=1 units=km
New Line.L_57_58 bus1=bus57 bus2=bus58 r1=0.0072 x1=0.0148 r0=0.0072 x0=0.0148 length=1 units=km
New Line.L_58_59 bus1=bus58 bus2=bus59 r1=0.0159 x1=0.0327 r0=0.0159 x0=0.0327 length=1 units=km
New Line.L_58_60 bus1=bus58 bus2=bus60 r1=0.0203 x1=0.0416 r0=0.0203 x0=0.0416 length=1 units=km
New Line.L_59_61 bus1=bus59 bus2=bus61 r1=0.0159 x1=0.0327 r0=0.0159 x0=0.0327 length=1 units=km
New Line.L_60_62 bus1=bus60 bus2=bus62 r1=0.0629 x1=0.0638 r0=0.0629 x0=0.0638 length=1 units=km
New Line.L_60_63 bus1=bus60 bus2=bus63 r1=0.0435 x1=0.0891 r0=0.0435 x0=0.0891 length=1 units=km
New Line.L_62_64 bus1=bus62 bus2=bus64 r1=0.0629 x1=0.0638 r0=0.0629 x0=0.0638 length=1 units=km
New Line.L_63_65 bus1=bus63 bus2=bus65 r1=0.0319 x1=0.0653 r0=0.0319 x0=0.0653 length=1 units=km
New Line.L_63_66 bus1=bus63 bus2=bus66 r1=0.048 x1=0.0229 r0=0.048 x0=0.0229 length=1 units=km
New Line.L_66_67 bus1=bus66 bus2=bus67 r1=0.0336 x1=0.016 r0=0.0336 x0=0.016 length=1 units=km
New Line.L_67_68 bus1=bus67 bus2=bus68 r1=0.0672 x1=0.032 r0=0.0672 x0=0.032 length=1 units=km
New Line.L_68_69 bus1=bus68 bus2=bus69 r1=0.0816 x1=0.0389 r0=0.0816 x0=0.0389 length=1 units=km
New Line.L_69_70 bus1=bus69 bus2=bus70 r1=0.0624 x1=0.0297 r0=0.0624 x0=0.0297 length=1 units=km
New Line.L_71_72 bus1=bus71 bus2=bus72 r1=0.0503 x1=0.051 r0=0.0503 x0=0.051 length=1 units=km
New Line.L_71_73 bus1=bus71 bus2=bus73 r1=0.0159 x1=0.0327 r0=0.0159 x0=0.0327 length=1 units=km
New Line.L_71_74 bus1=bus71 bus2=bus74 r1=0.0145 x1=0.0297 r0=0.0145 x0=0.0297 length=1 units=km
New Line.L_72_75 bus1=bus72 bus2=bus75 r1=0.0692 x1=0.0702 r0=0.0692 x0=0.0702 length=1 units=km
New Line.L_75_76 bus1=bus75 bus2=bus76 r1=0.0818 x1=0.0829 r0=0.0818 x0=0.0829 length=1 units=km
New Line.L_76_77 bus1=bus76 bus2=bus77 r1=0.0692 x1=0.0702 r0=0.0692 x0=0.0702 length=1 units=km
New Line.L_73_78 bus1=bus73 bus2=bus78 r1=0.0692 x1=0.0702 r0=0.0692 x0=0.0702 length=1 units=km
New Line.L_73_79 bus1=bus73 bus2=bus79 r1=0.0116 x1=0.0238 r0=0.0116 x0=0.0238 length=1 units=km
New Line.L_78_80 bus1=bus78 bus2=bus80 r1=0.0881 x1=0.0893 r0=0.0881 x0=0.0893 length=1 units=km
New Line.L_80_81 bus1=bus80 bus2=bus81 r1=0.1007 x1=0.1021 r0=0.1007 x0=0.1021 length=1 units=km
New Line.L_79_82 bus1=bus79 bus2=bus82 r1=0.0232 x1=0.0475 r0=0.0232 x0=0.0475 length=1 units=km
New Line.L_79_83 bus1=bus79 bus2=bus83 r1=0.0406 x1=0.0831 r0=0.0406 x0=0.0831 length=1 units=km
New Line.L_82_84 bus1=bus82 bus2=bus84 r1=0.0058 x1=0.0119 r0=0.0058 x0=0.0119 length=1 units=km
New Line.L_84_85 bus1=bus84 bus2=bus85 r1=0.013 x1=0.0267 r0=0.013 x0=0.0267 length=1 units=km
New Line.L_84_86 bus1=bus84 bus2=bus86 r1=0.0275 x1=0.0564 r0=0.0275 x0=0.0564 length=1 units=km
New Line.L_86_87 bus1=bus86 bus2=bus87 r1=0.0101 x1=0.0208 r0=0.0101 x0=0.0208 length=1 units=km
New Line.L_87_88 bus1=bus87 bus2=bus88 r1=0.0145 x1=0.0297 r0=0.0145 x0=0.0297 length=1 units=km
New Line.L_87_89 bus1=bus87 bus2=bus89 r1=0.1699 x1=0.1723 r0=0.1699 x0=0.1723 length=1 units=km
New Line.L_88_90 bus1=bus88 bus2=bus90 r1=0.0145 x1=0.0297 r0=0.0145 x0=0.0297 length=1 units=km
New Line.L_89_91 bus1=bus89 bus2=bus91 r1=0.1196 x1=0.1212 r0=0.1196 x0=0.1212 length=1 units=km
New Line.L_83_92 bus1=bus83 bus2=bus92 r1=0.0261 x1=0.0534 r0=0.0261 x0=0.0534 length=1 units=km
New Line.L_92_93 bus1=bus92 bus2=bus93 r1=0.0441 x1=0.0447 r0=0.0441 x0=0.0447 length=1 units=km
New Line.L_92_94 bus1=bus92 bus2=bus94 r1=0.0159 x1=0.0327 r0=0.0159 x0=0.0327 length=1 units=km
New Line.L_94_95 bus1=bus94 bus2=bus95 r1=0.0566 x1=0.0574 r0=0.0566 x0=0.0574 length=1 units=km
New Line.L_94_96 bus1=bus94 bus2=bus96 r1=0.013 x1=0.0267 r0=0.013 x0=0.0267 length=1 units=km
New Line.L_96_97 bus1=bus96 bus2=bus97 r1=0.0755 x1=0.0766 r0=0.0755 x0=0.0766 length=1 units=km
New Line.L_96_98 bus1=bus96 bus2=bus98 r1=0.013 x1=0.0267 r0=0.013 x0=0.0267 length=1 units=km
New Line.L_98_99 bus1=bus98 bus2=bus99 r1=0.0692 x1=0.0702 r0=0.0692 x0=0.0702 length=1 units=km
New Line.L_98_100 bus1=bus98 bus2=bus100 r1=0.0174 x1=0.0356 r0=0.0174 x0=0.0356 length=1 units=km
New Line.L_100_101 bus1=bus100 bus2=bus101 r1=0.0503 x1=0.051 r0=0.0503 x0=0.051 length=1 units=km
New Line.L_74_102 bus1=bus74 bus2=bus102 r1=0.0159 x1=0.0327 r0=0.0159 x0=0.0327 length=1 units=km
New Line.L_102_103 bus1=bus102 bus2=bus103 r1=0.0319 x1=0.0653 r0=0.0319 x0=0.0653 length=1 units=km
New Line.L_103_104 bus1=bus103 bus2=bus104 r1=0.0174 x1=0.0356 r0=0.0174 x0=0.0356 length=1 units=km
New Line.L_104_105 bus1=bus104 bus2=bus105 r1=0.0464 x1=0.095 r0=0.0464 x0=0.095 length=1 units=km
New Line.L_106_107 bus1=bus106 bus2=bus107 r1=0.0566 x1=0.0574 r0=0.0566 x0=0.0574 length=1 units=km
New Line.L_106_108 bus1=bus106 bus2=bus108 r1=0.0159 x1=0.0327 r0=0.0159 x0=0.0327 length=1 units=km
New Line.L_107_109 bus1=bus107 bus2=bus109 r1=0.0818 x1=0.0829 r0=0.0818 x0=0.0829 length=1 units=km
New Line.L_109_110 bus1=bus109 bus2=bus110 r1=0.1762 x1=0.1786 r0=0.1762 x0=0.1786 length=1 units=km
New Line.L_108_111 bus1=bus108 bus2=bus111 r1=0.0566 x1=0.0574 r0=0.0566 x0=0.0574 length=1 units=km
New Line.L_108_112 bus1=bus108 bus2=bus112 r1=0.0188 x1=0.0386 r0=0.0188 x0=0.0386 length=1 units=km
New Line.L_111_113 bus1=bus111 bus2=bus113 r1=0.1448 x1=0.1467 r0=0.1448 x0=0.1467 length=1 units=km
New Line.L_112_114 bus1=bus112 bus2=bus114 r1=0.1133 x1=0.1148 r0=0.1133 x0=0.1148 length=1 units=km
New Line.L_112_115 bus1=bus112 bus2=bus115 r1=0.05797 x1=0.11876 r0=0.05797 x0=0.11876 length=1 units=km
New Line.L_114_116 bus1=bus114 bus2=bus116 r1=0.0755 x1=0.0766 r0=0.0755 x0=0.0766 length=1 units=km
New Line.L_116_117 bus1=bus116 bus2=bus117 r1=0.1448 x1=0.1467 r0=0.1448 x0=0.1467 length=1 units=km
New Line.L_116_118 bus1=bus116 bus2=bus118 r1=0.0315 x1=0.0319 r0=0.0315 x0=0.0319 length=1 units=km
New Line.L_118_119 bus1=bus118 bus2=bus119 r1=0.1322 x1=0.134 r0=0.1322 x0=0.134 length=1 units=km
New Line.L_119_120 bus1=bus119 bus2=bus120 r1=0.0818 x1=0.0829 r0=0.0818 x0=0.0829 length=1 units=km
New Line.L_121_39 bus1=bus121 bus2=bus39 r1=0.0217 x1=0.0445 r0=0.0217 x0=0.0445 length=1 units=km
New Line.L_122_56 bus1=bus122 bus2=bus56 r1=0.0232 x1=0.0475 r0=0.0232 x0=0.0475 length=1 units=km
New Line.L_55_123 bus1=bus55 bus2=bus123 r1=0.029 x1=0.0594 r0=0.029 x0=0.0594 length=1 units=km
New Line.L_124_125 bus1=bus124 bus2=bus125 r1=1e-06 x1=1e-06 r0=1e-06 x0=1e-06 length=1 units=km
New Line.L_125_71 bus1=bus125 bus2=bus71 r1=0.0203 x1=0.0416 r0=0.0203 x0=0.0416 length=1 units=km
New Line.L_126_106 bus1=bus126 bus2=bus106 r1=0.0145 x1=0.0297 r0=0.0145 x0=0.0297 length=1 units=km
New Line.L_12_122 bus1=bus12 bus2=bus122 r1=1e-06 x1=1e-06 r0=1e-06 x0=1e-06 length=1 units=km
New Line.L_16_121 bus1=bus16 bus2=bus121 r1=1e-06 x1=1e-06 r0=1e-06 x0=1e-06 length=1 units=km
New Line.L_63_124 bus1=bus63 bus2=bus124 r1=1e-06 x1=1e-06 r0=1e-06 x0=1e-06 length=1 units=km
New Line.L_74_126 bus1=bus74 bus2=bus126 r1=1e-06 x1=1e-06 r0=1e-06 x0=1e-06 length=1 units=km
New Line.L_65_127 bus1=bus65 bus2=bus127 r1=0.0001 x1=0.0001 r0=0.0001 x0=0.0001 length=1 units=km

New LoadShape.LS_1 npts=24 interval=0.000833 Pmult=(0.0 0.0 0.0 0.0 0.0 0.0 0.0 0.0 0.0 0.0 0.0 0.0 0.0 0.0 0.0 0.0 0.0 0.0 0.0 0.0 0.0 0.0 0.0 0.0 0.0 0.0 0.0 0.0 0.0 0.0 0.0 0.0 0.0 0.0 0.0 0.0 0.0 0.0 0.0 0.0 0.0 0.0 0.0 0.0 0.0 0.0 0.0 0.0 0.0 0.0 0.0 0.0 0.0 0.0 0.0 0.0 0.0 0.0 0.0 0.0 0.0 0.0 0.0 0.0 0.0 0.0 0.0 0.0 0.0 0.0 0.0 0.0 0.0 0.0 0.0 0.0 0.0 0.0 0.0 0.0 0.0 0.0 0.0 0.0 0.0 0.0 0.0 0.0 0.0 0.0 0.0 0.0 0.0 0.0 0.0 0.0 0.0 0.0 0.0 0.0)
Qmult=(0.0 0.0 0.0 0.0 0.0 0.0 0.0 0.0 0.0 0.0 0.0 0.0 0.0 0.0 0.0 0.0 0.0 0.0 0.0 0.0 0.0 0.0 0.0 0.0 0.0 0.0 0.0 0.0 0.0 0.0 0.0 0.0 0.0 0.0 0.0 0.0 0.0 0.0 0.0 0.0 0.0 0.0 0.0 0.0 0.0 0.0 0.0 0.0 0.0 0.0 0.0 0.0 0.0 0.0 0.0 0.0 0.0 0.0 0.0 0.0 0.0 0.0 0.0 0.0 0.0 0.0 0.0 0.0 0.0 0.0 0.0 0.0 0.0 0.0 0.0 0.0 0.0 0.0 0.0 0.0 0.0 0.0 0.0 0.0 0.0 0.0 0.0 0.0 0.0 0.0 0.0 0.0 0.0 0.0 0.0 0.0 0.0 0.0 0.0 0.0)
New LoadShape.LS_2 npts=24 interval=0.000833 Pmult=(0.9170543639763072 0.9108334744715034 0.9094195416922526 0.9036959192602136 0.9068390826990854 0.9127555467217328 0.9086902602349426 0.9018912460745773 0.913470231232436 0.9169851362444442 0.9187239088599614 0.9152381950018925 0.9191393907604064 0.9180049415252884 0.9107979336453979 0.9250512777497042 0.9264869183525015 0.9144326554660781 0.9018670299022554 0.9069199340406371 0.9141046057989392 0.9223156541767012 0.9149155019623465 0.9057423012021267 0.91550833194692 0.9140732611613324 0.923758237759788 0.9268250011328374 0.918123084926956 0.9156483867631697 0.9164112513663053 0.9122277700797385 0.9178460033596824 0.9129004320492481 0.9188407618930633 0.8879984451353751 0.8735739932599396 0.8809012808206518 0.8730964650973971 0.8828538737405278 0.8702879388390347 0.8723572275872004 0.8674746054341379 0.8681968582779935 1.0 0.9980639563679422 0.9975524019750044 0.9845008813805637 0.9713235800017314 0.9614680949811167 0.9627398699562129 0.9651723691354335 0.9650125292802244 0.9628533772284648 0.9631296909521505 0.9512246280616475 0.9508739203885008 0.9598647057889437 0.9561711520948852 0.9469036305165821 0.9434101475260648 0.9540474338822201 0.956624353696894 0.951890327755031 0.9451860521213237 0.9091969225318708 0.9181666601268247 0.930427607324305 0.9304952052736528 0.923460309259552 0.9199928072863717 0.9252952926733133 0.9183935224184924 0.9158179056145747 0.9286274703019067 0.9229716846324397 0.9225720518556109 0.9216208107855625 0.9248861038588162 0.9229859893333561 0.9065402032145049 0.9209630403452868 0.9100415378531833 0.9210571979731044 0.9116607005356436 0.9137310447496046 0.9275466673769196 0.9260956533778129 0.9267051174721577 0.9129457868395381 0.9298883347062323 0.9171303129064574 0.9213101751260182 0.9242539560464289 0.9172394085413159 0.9240693511897266 0.9241847552103761 0.8852094342760886 0.8887604048317665 0.8900700707908185)
Qmult=(0.9170543639763072 0.9108334744715035 0.9094195416922527 0.9036959192602138 0.9068390826990854 0.9127555467217329 0.9086902602349427 0.9018912460745773 0.913470231232436 0.9169851362444443 0.9187239088599615 0.9152381950018926 0.9191393907604065 0.9180049415252884 0.9107979336453979 0.9250512777497042 0.9264869183525016 0.9144326554660781 0.9018670299022555 0.9069199340406371 0.9141046057989393 0.9223156541767011 0.9149155019623465 0.9057423012021268 0.91550833194692 0.9140732611613324 0.923758237759788 0.9268250011328375 0.9181230849269562 0.9156483867631697 0.9164112513663053 0.9122277700797387 0.9178460033596825 0.9129004320492482 0.9188407618930633 0.8879984451353752 0.8735739932599396 0.8809012808206519 0.8730964650973971 0.8828538737405278 0.8702879388390348 0.8723572275872004 0.867474605434138 0.8681968582779936 1.0 0.9980639563679423 0.9975524019750044 0.9845008813805638 0.9713235800017314 0.9614680949811167 0.9627398699562129 0.9651723691354336 0.9650125292802245 0.9628533772284648 0.9631296909521505 0.9512246280616476 0.9508739203885008 0.9598647057889438 0.9561711520948853 0.9469036305165821 0.9434101475260649 0.9540474338822201 0.956624353696894 0.9518903277550311 0.9451860521213237 0.9091969225318708 0.9181666601268247 0.9304276073243051 0.9304952052736529 0.923460309259552 0.9199928072863718 0.9252952926733133 0.9183935224184925 0.9158179056145748 0.9286274703019068 0.9229716846324397 0.9225720518556109 0.9216208107855625 0.9248861038588163 0.9229859893333561 0.906540203214505 0.9209630403452869 0.9100415378531833 0.9210571979731045 0.9116607005356437 0.9137310447496048 0.9275466673769198 0.926095653377813 0.9267051174721578 0.9129457868395381 0.9298883347062324 0.9171303129064575 0.9213101751260183 0.9242539560464289 0.917239408541316 0.9240693511897267 0.9241847552103761 0.8852094342760887 0.8887604048317667 0.8900700707908185)
New LoadShape.LS_3 npts=24 interval=0.000833 Pmult=(0.9071455469649475 0.896012101958667 0.8912062715561984 0.90782631863883 0.9040778403076463 0.8994758905895566 0.896809708003068 0.9058606836291282 0.8855451432284646 0.91218095209618 0.9187729417806221 0.8988615832776076 0.9054652202879915 0.9048751287383487 0.9021584597308723 0.9019944302085203 0.9059432828016508 0.9101883903842319 0.895045324511151 0.9012303232199136 0.9088575836593769 0.9126009145289328 0.899678434589631 0.8936713777969248 0.8978807839497508 0.9084462488304226 0.910586594370625 0.9169952810276332 0.9037729693761629 0.9098458200442462 0.9224444249660377 0.8986420666123239 0.9170036925084912 0.9098575480371197 0.8981773183398596 0.8708941100440375 0.8789397427075867 0.8576154476352433 0.8761649209674486 0.8729475188956953 0.8731008904306004 0.8673320557493684 0.8656467194525761 0.8710662188266363 0.9880080861626535 0.9964032606792935 0.9857745997383421 0.994570954033692 0.9800228785894034 0.9962848710396008 0.9948468986807248 0.995707328552278 1.0 0.9827458027168422 0.995976842134724 0.9848547551235314 0.9960499550546789 0.9910365308297203 0.9823766243620033 0.9860271119495002 0.9835950707328611 0.9825554461168821 0.9841757399347993 0.9860266158226694 0.9844451709498049 0.9605075064731584 0.9604386737864988 0.9598435164023841 0.9451423713184568 0.9495735216337398 0.9633974169157741 0.9575172852501247 0.9528238083862286 0.9606115401025024 0.9627185945295224 0.9503505603337442 0.957969540521535 0.9608704754676837 0.9556901750418728 0.9580584511131652 0.9654044643098958 0.9640670852610658 0.9477675682169593 0.9583409067262073 0.9464396734344046 0.9525726281232942 0.9514577032567249 0.9470939022709589 0.9636984476279788 0.9545019192434682 0.9447716681034914 0.9439084644571843 0.9627281244806022 0.9517424707174891 0.9574373516763692 0.9685462372774312 0.9541369543957471 0.9228535115480108 0.9245444059892323 0.9266844508454333)
Qmult=(0.9071455469649474 0.896012101958667 0.8912062715561984 0.90782631863883 0.9040778403076462 0.8994758905895566 0.896809708003068 0.9058606836291282 0.8855451432284646 0.91218095209618 0.9187729417806221 0.8988615832776076 0.9054652202879916 0.9048751287383487 0.9021584597308723 0.9019944302085202 0.9059432828016507 0.9101883903842319 0.895045324511151 0.9012303232199137 0.9088575836593769 0.9126009145289328 0.899678434589631 0.8936713777969248 0.8978807839497508 0.9084462488304227 0.910586594370625 0.9169952810276332 0.9037729693761629 0.9098458200442462 0.9224444249660378 0.8986420666123239 0.9170036925084913 0.9098575480371198 0.8981773183398595 0.8708941100440374 0.8789397427075868 0.8576154476352432 0.8761649209674487 0.8729475188956953 0.8731008904306002 0.8673320557493684 0.8656467194525761 0.8710662188266363 0.9880080861626536 0.9964032606792935 0.9857745997383421 0.994570954033692 0.9800228785894034 0.9962848710396008 0.9948468986807248 0.995707328552278 1.0 0.9827458027168422 0.995976842134724 0.9848547551235313 0.9960499550546787 0.9910365308297203 0.9823766243620033 0.9860271119495002 0.9835950707328611 0.982555446116882 0.9841757399347993 0.9860266158226694 0.9844451709498049 0.9605075064731584 0.9604386737864988 0.9598435164023841 0.9451423713184567 0.9495735216337399 0.9633974169157741 0.9575172852501247 0.9528238083862286 0.9606115401025024 0.9627185945295225 0.9503505603337442 0.957969540521535 0.9608704754676837 0.9556901750418728 0.9580584511131652 0.9654044643098957 0.9640670852610658 0.9477675682169593 0.9583409067262073 0.9464396734344047 0.9525726281232942 0.951457703256725 0.9470939022709589 0.9636984476279788 0.9545019192434682 0.9447716681034914 0.9439084644571845 0.9627281244806022 0.9517424707174891 0.9574373516763693 0.968546237277431 0.9541369543957471 0.9228535115480109 0.9245444059892323 0.9266844508454333)
New LoadShape.LS_4 npts=24 interval=0.000833 Pmult=(0.0 0.0 0.0 0.0 0.0 0.0 0.0 0.0 0.0 0.0 0.0 0.0 0.0 0.0 0.0 0.0 0.0 0.0 0.0 0.0 0.0 0.0 0.0 0.0 0.0 0.0 0.0 0.0 0.0 0.0 0.0 0.0 0.0 0.0 0.0 0.0 0.0 0.0 0.0 0.0 0.0 0.0 0.0 0.0 0.0 0.0 0.0 0.0 0.0 0.0 0.0 0.0 0.0 0.0 0.0 0.0 0.0 0.0 0.0 0.0 0.0 0.0 0.0 0.0 0.0 0.0 0.0 0.0 0.0 0.0 0.0 0.0 0.0 0.0 0.0 0.0 0.0 0.0 0.0 0.0 0.0 0.0 0.0 0.0 0.0 0.0 0.0 0.0 0.0 0.0 0.0 0.0 0.0 0.0 0.0 0.0 0.0 0.0 0.0 0.0)
Qmult=(0.0 0.0 0.0 0.0 0.0 0.0 0.0 0.0 0.0 0.0 0.0 0.0 0.0 0.0 0.0 0.0 0.0 0.0 0.0 0.0 0.0 0.0 0.0 0.0 0.0 0.0 0.0 0.0 0.0 0.0 0.0 0.0 0.0 0.0 0.0 0.0 0.0 0.0 0.0 0.0 0.0 0.0 0.0 0.0 0.0 0.0 0.0 0.0 0.0 0.0 0.0 0.0 0.0 0.0 0.0 0.0 0.0 0.0 0.0 0.0 0.0 0.0 0.0 0.0 0.0 0.0 0.0 0.0 0.0 0.0 0.0 0.0 0.0 0.0 0.0 0.0 0.0 0.0 0.0 0.0 0.0 0.0 0.0 0.0 0.0 0.0 0.0 0.0 0.0 0.0 0.0 0.0 0.0 0.0 0.0 0.0 0.0 0.0 0.0 0.0)
New LoadShape.LS_5 npts=24 interval=0.000833 Pmult=(0.7395431391766031 0.7326509540679249 0.7419979835300146 0.7535346284251265 0.7528401678288283 0.7577316477440877 0.7474657266605078 0.7402051027554574 0.7439223063475983 0.7442750325592654 0.7328446175075236 0.7529253892728732 0.7506576991713397 0.7474738033841324 0.7466051911456639 0.7603571691712784 0.7577484211638158 0.7529147447661212 0.760523284970633 0.7462858074975662 0.7670017120454218 0.7452509020092924 0.7501387109343964 0.7617020095437275 0.744151220606734 0.7532494270176967 0.7567716868653036 0.7555727790559712 0.7463918393552018 0.7476008818880728 0.7597121990775013 0.7435323092703126 0.7502167962098759 0.7484555216163927 0.7450553886682673 0.7470655500213665 0.7577269895325621 0.7467601721807069 0.7641370006243242 0.7485367412922802 0.7500575786807161 0.7442847775948495 0.7542178335631867 0.758288158447618 0.9972415342912353 0.9794832114287331 1.0 0.9968548040295149 0.9704824238458014 0.9698566428254822 0.975388560956534 0.9677421865833333 0.9737685026033925 0.9750398289156084 0.9740300631084097 0.9650826739961705 0.9748065713782588 0.9695786374768269 0.9653153101667475 0.9641319251400392 0.9722569653417709 0.9661453341166386 0.9716371126805096 0.9709727416320642 0.9696992889785893 0.9712196299073561 0.9535000255934448 0.9627869604736682 0.9685693278952158 0.9691844705141811 0.9668756965581264 0.980200709528671 0.9654835231207901 0.9632698170715778 0.970369787898924 0.9618567218251715 0.9752040063304509 0.9505908932149613 0.9609333497119573 0.9731012901045917 0.969476804607615 0.9617726967198226 0.9746338025731727 0.9723314253521969 0.9659470593821069 0.9720379940941789 0.9562589194222902 0.9654912855374308 0.9729945777355489 0.9732581027264864 0.9779174068288372 0.9710201737216878 0.9756700660035197 0.9687605991583024 0.9732207377371284 0.9737498754548819 0.9725539691749112 0.9384357045731592 0.9415909875949648 0.944108057105905)
Qmult=(0.7395431391766031 0.7326509540679249 0.7419979835300146 0.7535346284251265 0.7528401678288283 0.7577316477440877 0.7474657266605078 0.7402051027554575 0.7439223063475983 0.7442750325592654 0.7328446175075236 0.7529253892728732 0.7506576991713397 0.7474738033841324 0.7466051911456638 0.7603571691712784 0.7577484211638158 0.7529147447661212 0.760523284970633 0.7462858074975663 0.7670017120454218 0.7452509020092924 0.7501387109343963 0.7617020095437275 0.744151220606734 0.7532494270176967 0.7567716868653036 0.7555727790559712 0.7463918393552018 0.7476008818880727 0.7597121990775012 0.7435323092703126 0.750216796209876 0.7484555216163927 0.7450553886682673 0.7470655500213665 0.757726989532562 0.7467601721807069 0.7641370006243241 0.7485367412922802 0.7500575786807161 0.7442847775948495 0.7542178335631867 0.758288158447618 0.9972415342912352 0.9794832114287331 1.0 0.9968548040295148 0.9704824238458014 0.9698566428254822 0.9753885609565339 0.9677421865833333 0.9737685026033925 0.9750398289156084 0.9740300631084097 0.9650826739961705 0.9748065713782589 0.9695786374768269 0.9653153101667475 0.9641319251400391 0.9722569653417709 0.9661453341166386 0.9716371126805095 0.9709727416320642 0.9696992889785893 0.9712196299073561 0.9535000255934447 0.9627869604736682 0.9685693278952157 0.9691844705141811 0.9668756965581264 0.980200709528671 0.9654835231207901 0.9632698170715778 0.970369787898924 0.9618567218251713 0.9752040063304508 0.9505908932149613 0.9609333497119573 0.9731012901045917 0.969476804607615 0.9617726967198226 0.9746338025731727 0.9723314253521969 0.9659470593821069 0.9720379940941789 0.9562589194222901 0.9654912855374307 0.9729945777355488 0.9732581027264864 0.9779174068288371 0.9710201737216878 0.9756700660035197 0.9687605991583024 0.9732207377371285 0.9737498754548819 0.9725539691749112 0.9384357045731593 0.9415909875949648 0.9441080571059048)
New LoadShape.LS_6 npts=24 interval=0.000833 Pmult=(0.854185314298372 0.8530399946333579 0.8481623667260524 0.8568279009354212 0.8491335796385429 0.8493847317046168 0.8531672225247946 0.8455761542383082 0.8518534661612048 0.8498682472793053 0.8526592052572466 0.855193160773655 0.8568027874074451 0.8529345006464298 0.8560646453455126 0.8666007398272993 0.8559027816596327 0.8599087395168239 0.858432627150936 0.8567606769245312 0.8548434710381841 0.8510948399276155 0.8517439260757216 0.8543983025349781 0.8681330697554549 0.8583162683296988 0.8601694519618556 0.8636628789892876 0.8610358243993341 0.844126268236475 0.8586674792976171 0.8726385633621219 0.8630119040937216 0.8634826858023887 0.8599553400434286 0.82033647952075 0.8136796338892752 0.8245226690238123 0.8242737005786448 0.8218403977375145 0.8109968581792589 0.8187868551560921 0.8250624943730519 0.8184386229134453 0.9965823484063486 0.9977262414012236 0.9968880363982732 1.0 0.9961709676005978 0.9941386385010215 0.9938630701020554 0.9978729592464732 0.9941330883294605 0.9860019430586133 0.9985866560309123 0.994406348412588 0.9851613597452117 0.9898532751614268 0.9872179856736428 0.9849442425787452 0.9742068387371566 0.9793179045930248 0.9780875406831621 0.9833638328772317 0.9777041490463483 0.9571130540160857 0.9478923935692473 0.95241090090456 0.9448932535448735 0.9534310934703631 0.9518735120700289 0.951697721963008 0.9584538766896911 0.9475331918452419 0.9568611207801401 0.9509108851286864 0.956600170364984 0.9539767679882282 0.9558586891332836 0.9449829455433519 0.9509497617541308 0.9502922022878982 0.9492763547850175 0.9558814616272681 0.9489916593180705 0.9533436239851789 0.9664683479057442 0.9516962350887901 0.9593379779518155 0.9677799686441423 0.9522065202616852 0.9545162000864478 0.9501371234153008 0.9585161273429347 0.9631410736608929 0.9550990170782931 0.9510090587459236 0.9308399497950026 0.9239774638111176 0.9313713458943995)
Qmult=(0.854185314298372 0.8530399946333579 0.8481623667260524 0.8568279009354212 0.8491335796385429 0.8493847317046168 0.8531672225247946 0.8455761542383082 0.8518534661612048 0.8498682472793053 0.8526592052572466 0.855193160773655 0.8568027874074451 0.8529345006464298 0.8560646453455126 0.8666007398272993 0.8559027816596328 0.8599087395168238 0.858432627150936 0.8567606769245311 0.8548434710381841 0.8510948399276155 0.8517439260757217 0.8543983025349781 0.868133069755455 0.8583162683296988 0.8601694519618555 0.8636628789892876 0.861035824399334 0.8441262682364749 0.8586674792976171 0.8726385633621219 0.8630119040937216 0.8634826858023887 0.8599553400434286 0.82033647952075 0.8136796338892752 0.8245226690238123 0.8242737005786448 0.8218403977375146 0.8109968581792588 0.818786855156092 0.8250624943730519 0.8184386229134453 0.9965823484063487 0.9977262414012236 0.9968880363982732 1.0 0.9961709676005978 0.9941386385010215 0.9938630701020555 0.9978729592464732 0.9941330883294605 0.9860019430586133 0.9985866560309123 0.994406348412588 0.9851613597452117 0.9898532751614268 0.9872179856736428 0.9849442425787452 0.9742068387371566 0.9793179045930247 0.9780875406831621 0.9833638328772317 0.9777041490463483 0.9571130540160857 0.9478923935692473 0.95241090090456 0.9448932535448735 0.9534310934703631 0.9518735120700289 0.951697721963008 0.9584538766896911 0.9475331918452419 0.9568611207801401 0.9509108851286864 0.956600170364984 0.9539767679882283 0.9558586891332838 0.9449829455433519 0.9509497617541309 0.9502922022878982 0.9492763547850175 0.9558814616272682 0.9489916593180705 0.9533436239851789 0.9664683479057443 0.9516962350887901 0.9593379779518155 0.9677799686441423 0.9522065202616851 0.9545162000864479 0.9501371234153009 0.9585161273429346 0.9631410736608929 0.9550990170782931 0.9510090587459236 0.9308399497950025 0.9239774638111174 0.9313713458943994)
New LoadShape.LS_7 npts=24 interval=0.000833 Pmult=(0.6281751664418751 0.6186859181040202 0.629851008950841 0.6309356868807494 0.6352703909638754 0.628557286510326 0.6364807320066671 0.6281271420930217 0.6263395586717025 0.6499426129375713 0.6314528855289299 0.6308800387126662 0.6295310490684324 0.6363722601159214 0.639311301641343 0.6359481586354331 0.640727655081595 0.6324332895707779 0.6218853727305621 0.6414026256653778 0.6266785538724531 0.6418937017894124 0.637332885343242 0.6372565952612889 0.6273310837213022 0.6426660524405988 0.6328641915791491 0.6335093345072841 0.6349058086144933 0.6421647585261698 0.6339264605931484 0.6339676652993427 0.635242149259621 0.6375056236357827 0.6322776945516361 0.6126757742438721 0.6129474443201415 0.6069747726196442 0.6165749144985798 0.6063273524420137 0.6078150669147754 0.6167796182966554 0.5975637002976887 0.6065413950941769 0.9664790896838976 0.9724119470563258 0.9795008157747972 0.986486063377631 0.9875162614713205 0.9860645921901353 1.0 0.9908064655011922 0.9904704239561691 0.997069871203747 0.9874210551345698 0.9901830772420116 0.984001533844337 0.9994807639447568 0.9903121667619441 0.9887314095606234 0.9881178625999901 0.9810530356155511 0.9951922240850372 0.9879767282898206 0.987604565473982 0.9791070929966191 0.9644782207030356 0.9798185381841649 0.9717712236169271 0.9656366801902675 0.9536334979712298 0.9652427818510841 0.9641939491349545 0.9716034628492299 0.9687929384462836 0.9703672303684774 0.9715160240554181 0.9720260027001486 0.9773382968585879 0.9681952085327982 0.9706351676532751 0.9696408872908955 0.9670547196194207 0.9709940408805022 0.9835232325118922 0.9679167042566776 0.959418027743369 0.9639753478594221 0.9715215328401935 0.9626625344878488 0.9691615555896418 0.9697389729407359 0.9765350239351824 0.9706957283632018 0.9711718949742622 0.9724994949367817 0.9685631200920052 0.9749969831345486 0.9668633058292871 0.9730169029305933)
Qmult=(0.6281751664418751 0.6186859181040202 0.629851008950841 0.6309356868807494 0.6352703909638753 0.6285572865103259 0.6364807320066671 0.6281271420930217 0.6263395586717024 0.6499426129375714 0.63145288552893 0.6308800387126662 0.6295310490684324 0.6363722601159214 0.639311301641343 0.6359481586354331 0.640727655081595 0.6324332895707779 0.6218853727305621 0.6414026256653776 0.626678553872453 0.6418937017894123 0.6373328853432418 0.6372565952612889 0.6273310837213022 0.6426660524405987 0.6328641915791491 0.6335093345072842 0.6349058086144932 0.6421647585261699 0.6339264605931485 0.6339676652993427 0.635242149259621 0.6375056236357827 0.6322776945516361 0.612675774243872 0.6129474443201415 0.606974772619644 0.6165749144985798 0.6063273524420137 0.6078150669147754 0.6167796182966553 0.5975637002976887 0.6065413950941769 0.9664790896838976 0.9724119470563257 0.9795008157747971 0.986486063377631 0.9875162614713205 0.9860645921901353 1.0 0.9908064655011922 0.9904704239561691 0.9970698712037469 0.9874210551345697 0.9901830772420115 0.984001533844337 0.9994807639447568 0.990312166761944 0.9887314095606234 0.9881178625999901 0.9810530356155511 0.995192224085037 0.9879767282898205 0.987604565473982 0.9791070929966191 0.9644782207030356 0.9798185381841649 0.9717712236169271 0.9656366801902675 0.9536334979712298 0.965242781851084 0.9641939491349545 0.9716034628492299 0.9687929384462836 0.9703672303684774 0.9715160240554181 0.9720260027001486 0.977338296858588 0.9681952085327981 0.9706351676532751 0.9696408872908955 0.9670547196194207 0.9709940408805022 0.9835232325118922 0.9679167042566775 0.9594180277433689 0.9639753478594221 0.9715215328401935 0.9626625344878488 0.9691615555896417 0.9697389729407359 0.9765350239351824 0.9706957283632018 0.9711718949742622 0.9724994949367817 0.9685631200920052 0.9749969831345485 0.966863305829287 0.9730169029305932)
New LoadShape.LS_8 npts=24 interval=0.000833 Pmult=(0.7935367640553066 0.7925956021684487 0.8011463272604981 0.792551617134632 0.7880217805178734 0.7965151444691357 0.7986462775499706 0.7956119845096307 0.7953752729600443 0.7856492625533478 0.7904930553956226 0.7964350201407627 0.7896752899979537 0.7845271933510629 0.8021393967578848 0.8052792445930109 0.8015457377022351 0.7967923621859753 0.7964636364776149 0.7877325334239782 0.8006914146912196 0.7989263702803872 0.7957639195005998 0.7928200983657122 0.7881780035735955 0.7986419416288737 0.8078333740094442 0.8060652250522726 0.8021716181583561 0.7984304995575193 0.7943622570761288 0.7994545272691812 0.7937668623623897 0.7901463384376871 0.7988305547020451 0.7435447325240058 0.7451860732216918 0.743630790010031 0.7482715917774206 0.7449762779946623 0.7489229679292059 0.7377835930764312 0.752545525075219 0.7492449924457758 0.9973205912840198 1.0 0.9823995274188627 0.9877115981324698 0.9670827409666878 0.9687877744683892 0.9655175159093357 0.9734121921278432 0.9782349443252605 0.9662754828488834 0.9697084447344189 0.9659445763214058 0.9642182019377739 0.9682790596661556 0.9621568444331995 0.9555687683623021 0.9598354799325564 0.9583945149544628 0.9581118429351836 0.9568142091888291 0.9578850203164657 0.9227421299304437 0.931021364838459 0.9309809146323241 0.9292232508935977 0.9202829168247221 0.9291821737200958 0.9263543645088289 0.9274810086042655 0.9223123182285529 0.9289018522459678 0.9331244833386781 0.9320025461371205 0.9213598534068664 0.929303681931537 0.9272034399033647 0.9206708089559571 0.9294659130338909 0.9330758899265046 0.9300300315406828 0.9307213113016891 0.9249154961922104 0.9299207116455642 0.9258788750820385 0.9255883402011842 0.9288485660512829 0.9337182957658725 0.9311810434960216 0.9352212097176618 0.929526675592828 0.9271942472372783 0.9280305254216823 0.9324392618022764 0.91725624486904 0.9178841350569462 0.9089042289562058)
Qmult=(0.7935367640553067 0.7925956021684487 0.8011463272604982 0.792551617134632 0.7880217805178735 0.7965151444691357 0.7986462775499706 0.7956119845096307 0.7953752729600444 0.7856492625533479 0.7904930553956228 0.7964350201407628 0.7896752899979538 0.7845271933510629 0.8021393967578849 0.8052792445930109 0.8015457377022353 0.7967923621859754 0.796463636477615 0.7877325334239782 0.8006914146912197 0.7989263702803872 0.7957639195005998 0.7928200983657122 0.7881780035735954 0.7986419416288737 0.8078333740094442 0.8060652250522726 0.8021716181583562 0.7984304995575193 0.7943622570761288 0.7994545272691812 0.7937668623623897 0.7901463384376871 0.7988305547020451 0.7435447325240059 0.745186073221692 0.743630790010031 0.7482715917774206 0.7449762779946623 0.748922967929206 0.7377835930764312 0.7525455250752191 0.7492449924457758 0.99732059128402 1.0 0.9823995274188627 0.9877115981324698 0.9670827409666878 0.9687877744683892 0.9655175159093357 0.9734121921278432 0.9782349443252606 0.9662754828488835 0.969708444734419 0.965944576321406 0.964218201937774 0.9682790596661556 0.9621568444331996 0.9555687683623021 0.9598354799325564 0.9583945149544628 0.9581118429351837 0.9568142091888291 0.9578850203164657 0.9227421299304438 0.931021364838459 0.9309809146323242 0.9292232508935978 0.9202829168247222 0.9291821737200959 0.9263543645088289 0.9274810086042655 0.9223123182285529 0.9289018522459679 0.9331244833386781 0.9320025461371206 0.9213598534068664 0.9293036819315371 0.9272034399033648 0.9206708089559572 0.9294659130338909 0.9330758899265047 0.9300300315406828 0.9307213113016892 0.9249154961922105 0.9299207116455642 0.9258788750820385 0.9255883402011843 0.9288485660512829 0.9337182957658725 0.9311810434960217 0.9352212097176619 0.929526675592828 0.9271942472372783 0.9280305254216823 0.9324392618022765 0.9172562448690402 0.9178841350569463 0.9089042289562059)
New LoadShape.LS_9 npts=24 interval=0.000833 Pmult=(0.0 0.0 0.0 0.0 0.0 0.0 0.0 0.0 0.0 0.0 0.0 0.0 0.0 0.0 0.0 0.0 0.0 0.0 0.0 0.0 0.0 0.0 0.0 0.0 0.0 0.0 0.0 0.0 0.0 0.0 0.0 0.0 0.0 0.0 0.0 0.0 0.0 0.0 0.0 0.0 0.0 0.0 0.0 0.0 0.0 0.0 0.0 0.0 0.0 0.0 0.0 0.0 0.0 0.0 0.0 0.0 0.0 0.0 0.0 0.0 0.0 0.0 0.0 0.0 0.0 0.0 0.0 0.0 0.0 0.0 0.0 0.0 0.0 0.0 0.0 0.0 0.0 0.0 0.0 0.0 0.0 0.0 0.0 0.0 0.0 0.0 0.0 0.0 0.0 0.0 0.0 0.0 0.0 0.0 0.0 0.0 0.0 0.0 0.0 0.0)
Qmult=(0.0 0.0 0.0 0.0 0.0 0.0 0.0 0.0 0.0 0.0 0.0 0.0 0.0 0.0 0.0 0.0 0.0 0.0 0.0 0.0 0.0 0.0 0.0 0.0 0.0 0.0 0.0 0.0 0.0 0.0 0.0 0.0 0.0 0.0 0.0 0.0 0.0 0.0 0.0 0.0 0.0 0.0 0.0 0.0 0.0 0.0 0.0 0.0 0.0 0.0 0.0 0.0 0.0 0.0 0.0 0.0 0.0 0.0 0.0 0.0 0.0 0.0 0.0 0.0 0.0 0.0 0.0 0.0 0.0 0.0 0.0 0.0 0.0 0.0 0.0 0.0 0.0 0.0 0.0 0.0 0.0 0.0 0.0 0.0 0.0 0.0 0.0 0.0 0.0 0.0 0.0 0.0 0.0 0.0 0.0 0.0 0.0 0.0 0.0 0.0)
New LoadShape.LS_10 npts=24 interval=0.000833 Pmult=(0.8032279290777421 0.7962836216613067 0.7997255548054132 0.792687613707418 0.7942731504585951 0.7887533528244819 0.7997050368620664 0.7987641397548743 0.7999616758121483 0.8033790120368923 0.8006273736206406 0.8120150097433151 0.7989151724694319 0.8042505931393704 0.808478891534597 0.8102084387294247 0.8044836320840122 0.7953038754111995 0.8024240122321082 0.8016016148841028 0.8056871595023886 0.8107508697789948 0.802701290623162 0.8112558875617686 0.8110919973707672 0.7939052598588838 0.8004364996750746 0.8145578239517076 0.8143719536144625 0.8094941450717272 0.8141730522316875 0.8041546779206459 0.7983800497976441 0.807964179809045 0.8034043618597507 0.791081706478879 0.801863607591188 0.7961297728143721 0.7934060423650987 0.792444281520321 0.7955175414569259 0.7913663603670389 0.7956222166548294 0.7919542867295681 0.9850922241444838 0.9887489077453686 0.9918325547642463 1.0 0.98911800009265 0.9838595463776592 0.9794324731272077 0.9846797312808483 0.9793662788139132 0.9748520407855825 0.9837583162928568 0.9966741498764896 0.9800858593562478 0.972969136513573 0.9949115967852508 0.9809738429784207 0.9701236228200105 0.9789939589443322 0.977506278919579 0.980551103353026 0.9715347751497656 0.9639775869793583 0.9728511113216182 0.9631670512293685 0.9721289650085168 0.9689347910490235 0.9630582872714069 0.9789662761821162 0.9686001143106411 0.9606162206465565 0.9656055925467614 0.9701267645119717 0.9606865809155856 0.9710775613757917 0.9637416724266188 0.9491327538020474 0.965997543539524 0.9764640126540906 0.9705948492757416 0.9768383317092021 0.9683834804589682 0.9751622268635731 0.9701299761307933 0.9733144937699175 0.9571868544427107 0.9619596710148515 0.9715189574603176 0.9708751570340934 0.9717636059637674 0.9863383254228891 0.9576013144314343 0.9738303407117085 0.9752700317926647 0.9400221489022773 0.9440577801382686 0.9259172567501801)
Qmult=(0.8032279290777421 0.7962836216613068 0.7997255548054132 0.792687613707418 0.794273150458595 0.7887533528244818 0.7997050368620665 0.7987641397548743 0.7999616758121484 0.8033790120368923 0.8006273736206406 0.8120150097433151 0.7989151724694318 0.8042505931393704 0.8084788915345971 0.8102084387294248 0.8044836320840122 0.7953038754111995 0.8024240122321082 0.8016016148841028 0.8056871595023886 0.8107508697789949 0.8027012906231621 0.8112558875617686 0.8110919973707672 0.7939052598588838 0.8004364996750746 0.8145578239517075 0.8143719536144625 0.8094941450717272 0.8141730522316875 0.804154677920646 0.7983800497976441 0.807964179809045 0.8034043618597508 0.791081706478879 0.801863607591188 0.7961297728143722 0.7934060423650988 0.792444281520321 0.7955175414569259 0.7913663603670388 0.7956222166548294 0.7919542867295682 0.9850922241444837 0.9887489077453686 0.9918325547642463 1.0 0.9891180000926499 0.9838595463776593 0.9794324731272077 0.9846797312808483 0.9793662788139132 0.9748520407855825 0.9837583162928568 0.9966741498764897 0.9800858593562478 0.972969136513573 0.9949115967852509 0.9809738429784208 0.9701236228200105 0.9789939589443322 0.977506278919579 0.980551103353026 0.9715347751497656 0.9639775869793584 0.9728511113216182 0.9631670512293685 0.9721289650085169 0.9689347910490236 0.9630582872714069 0.9789662761821162 0.9686001143106411 0.9606162206465565 0.9656055925467615 0.9701267645119718 0.9606865809155856 0.9710775613757917 0.9637416724266188 0.9491327538020474 0.965997543539524 0.9764640126540906 0.9705948492757416 0.9768383317092021 0.9683834804589683 0.9751622268635732 0.9701299761307934 0.9733144937699176 0.9571868544427107 0.9619596710148515 0.9715189574603177 0.9708751570340934 0.9717636059637674 0.9863383254228892 0.9576013144314343 0.9738303407117085 0.9752700317926647 0.9400221489022773 0.9440577801382686 0.9259172567501801)
New LoadShape.LS_11 npts=24 interval=0.000833 Pmult=(0.6959209203651744 0.7023872445062213 0.7056033783415661 0.7007228280125218 0.7112237721891543 0.7035802265337341 0.6913810409584967 0.706746464855847 0.7029214813520513 0.7018417597144275 0.7027515275692665 0.7111950009518587 0.6984520508402822 0.6994983675213361 0.7034604901255936 0.7093066445803605 0.702586837849723 0.7100989309564467 0.7186503968968045 0.7054699519560474 0.7165866380899775 0.7062484947461843 0.7118741677346428 0.6955923775155599 0.7108751966060501 0.7035933211210453 0.7017555264048684 0.7119224688048793 0.7106778258588727 0.7067333699387411 0.7072062835630821 0.7120303200266354 0.7121148977643851 0.7070939438065083 0.7025248285849396 0.6932267927158885 0.6998016512612121 0.7004677405772256 0.6942554079981067 0.7030041859029177 0.6954657386130791 0.701008029759006 0.7023971833393013 0.7011558686719371 0.9966682697936213 0.9979925157361451 0.9958500901957253 1.0 0.9896056564647022 0.9810239352761012 0.9770723146309694 0.979211651533106 0.9834276556745658 0.9823760737749667 0.9873792082819048 0.9882357019555548 0.9870318097742491 0.9855335650203387 0.9864569089186201 0.9912593469895202 0.9765233792213323 0.9890891542137309 0.9907636307924627 0.9745185592293595 0.9858179673261263 0.9733835799725394 0.9760544201993977 0.9762467470976558 0.9936992450652773 0.9848291995495053 0.984169655182758 0.9729778174375576 0.969437037898729 0.9772057694656959 0.9785569661268352 0.9834720482918836 0.976979272884031 0.9806795156746452 0.9825801760760015 0.9795758890261403 0.971270672558134 0.9897458144168935 0.9791185821451804 0.9784313361465311 0.9742131111862111 0.9781595666130384 0.9750537767619375 0.9761714802024946 0.9698576133341978 0.9855570526689479 0.977562591127335 0.9774396301500046 0.977292068977946 0.9742324753621432 0.9802737709442724 0.9773810607157886 0.9753143658485146 0.9638428408502748 0.9698018140539448 0.9621136286417108)
Qmult=(0.6959209203651743 0.7023872445062213 0.7056033783415661 0.7007228280125217 0.7112237721891542 0.7035802265337341 0.6913810409584967 0.706746464855847 0.7029214813520512 0.7018417597144275 0.7027515275692666 0.7111950009518587 0.6984520508402822 0.699498367521336 0.7034604901255936 0.7093066445803605 0.7025868378497229 0.7100989309564467 0.7186503968968045 0.7054699519560474 0.7165866380899775 0.7062484947461842 0.7118741677346428 0.6955923775155598 0.71087519660605 0.7035933211210452 0.7017555264048684 0.7119224688048793 0.7106778258588726 0.706733369938741 0.707206283563082 0.7120303200266355 0.712114897764385 0.7070939438065083 0.7025248285849396 0.6932267927158884 0.6998016512612121 0.7004677405772256 0.6942554079981067 0.7030041859029177 0.6954657386130791 0.701008029759006 0.7023971833393015 0.7011558686719371 0.9966682697936212 0.9979925157361451 0.9958500901957252 1.0 0.9896056564647022 0.9810239352761012 0.9770723146309694 0.979211651533106 0.9834276556745658 0.9823760737749667 0.9873792082819047 0.9882357019555548 0.9870318097742491 0.9855335650203386 0.98645690891862 0.9912593469895202 0.9765233792213323 0.9890891542137308 0.9907636307924627 0.9745185592293594 0.9858179673261263 0.9733835799725394 0.9760544201993977 0.9762467470976557 0.9936992450652773 0.9848291995495053 0.984169655182758 0.9729778174375576 0.969437037898729 0.9772057694656959 0.9785569661268352 0.9834720482918835 0.976979272884031 0.9806795156746452 0.9825801760760013 0.9795758890261403 0.9712706725581339 0.9897458144168934 0.9791185821451804 0.9784313361465311 0.9742131111862111 0.9781595666130384 0.9750537767619374 0.9761714802024946 0.9698576133341978 0.9855570526689478 0.977562591127335 0.9774396301500046 0.977292068977946 0.9742324753621431 0.9802737709442723 0.9773810607157885 0.9753143658485146 0.9638428408502748 0.9698018140539448 0.9621136286417108)
New LoadShape.LS_12 npts=24 interval=0.000833 Pmult=(0.0 0.0 0.0 0.0 0.0 0.0 0.0 0.0 0.0 0.0 0.0 0.0 0.0 0.0 0.0 0.0 0.0 0.0 0.0 0.0 0.0 0.0 0.0 0.0 0.0 0.0 0.0 0.0 0.0 0.0 0.0 0.0 0.0 0.0 0.0 0.0 0.0 0.0 0.0 0.0 0.0 0.0 0.0 0.0 0.0 0.0 0.0 0.0 0.0 0.0 0.0 0.0 0.0 0.0 0.0 0.0 0.0 0.0 0.0 0.0 0.0 0.0 0.0 0.0 0.0 0.0 0.0 0.0 0.0 0.0 0.0 0.0 0.0 0.0 0.0 0.0 0.0 0.0 0.0 0.0 0.0 0.0 0.0 0.0 0.0 0.0 0.0 0.0 0.0 0.0 0.0 0.0 0.0 0.0 0.0 0.0 0.0 0.0 0.0 0.0)
Qmult=(0.0 0.0 0.0 0.0 0.0 0.0 0.0 0.0 0.0 0.0 0.0 0.0 0.0 0.0 0.0 0.0 0.0 0.0 0.0 0.0 0.0 0.0 0.0 0.0 0.0 0.0 0.0 0.0 0.0 0.0 0.0 0.0 0.0 0.0 0.0 0.0 0.0 0.0 0.0 0.0 0.0 0.0 0.0 0.0 0.0 0.0 0.0 0.0 0.0 0.0 0.0 0.0 0.0 0.0 0.0 0.0 0.0 0.0 0.0 0.0 0.0 0.0 0.0 0.0 0.0 0.0 0.0 0.0 0.0 0.0 0.0 0.0 0.0 0.0 0.0 0.0 0.0 0.0 0.0 0.0 0.0 0.0 0.0 0.0 0.0 0.0 0.0 0.0 0.0 0.0 0.0 0.0 0.0 0.0 0.0 0.0 0.0 0.0 0.0 0.0)
New LoadShape.LS_13 npts=24 interval=0.000833 Pmult=(0.0 0.0 0.0 0.0 0.0 0.0 0.0 0.0 0.0 0.0 0.0 0.0 0.0 0.0 0.0 0.0 0.0 0.0 0.0 0.0 0.0 0.0 0.0 0.0 0.0 0.0 0.0 0.0 0.0 0.0 0.0 0.0 0.0 0.0 0.0 0.0 0.0 0.0 0.0 0.0 0.0 0.0 0.0 0.0 0.0 0.0 0.0 0.0 0.0 0.0 0.0 0.0 0.0 0.0 0.0 0.0 0.0 0.0 0.0 0.0 0.0 0.0 0.0 0.0 0.0 0.0 0.0 0.0 0.0 0.0 0.0 0.0 0.0 0.0 0.0 0.0 0.0 0.0 0.0 0.0 0.0 0.0 0.0 0.0 0.0 0.0 0.0 0.0 0.0 0.0 0.0 0.0 0.0 0.0 0.0 0.0 0.0 0.0 0.0 0.0)
Qmult=(0.0 0.0 0.0 0.0 0.0 0.0 0.0 0.0 0.0 0.0 0.0 0.0 0.0 0.0 0.0 0.0 0.0 0.0 0.0 0.0 0.0 0.0 0.0 0.0 0.0 0.0 0.0 0.0 0.0 0.0 0.0 0.0 0.0 0.0 0.0 0.0 0.0 0.0 0.0 0.0 0.0 0.0 0.0 0.0 0.0 0.0 0.0 0.0 0.0 0.0 0.0 0.0 0.0 0.0 0.0 0.0 0.0 0.0 0.0 0.0 0.0 0.0 0.0 0.0 0.0 0.0 0.0 0.0 0.0 0.0 0.0 0.0 0.0 0.0 0.0 0.0 0.0 0.0 0.0 0.0 0.0 0.0 0.0 0.0 0.0 0.0 0.0 0.0 0.0 0.0 0.0 0.0 0.0 0.0 0.0 0.0 0.0 0.0 0.0 0.0)
New LoadShape.LS_14 npts=24 interval=0.000833 Pmult=(0.0 0.0 0.0 0.0 0.0 0.0 0.0 0.0 0.0 0.0 0.0 0.0 0.0 0.0 0.0 0.0 0.0 0.0 0.0 0.0 0.0 0.0 0.0 0.0 0.0 0.0 0.0 0.0 0.0 0.0 0.0 0.0 0.0 0.0 0.0 0.0 0.0 0.0 0.0 0.0 0.0 0.0 0.0 0.0 0.0 0.0 0.0 0.0 0.0 0.0 0.0 0.0 0.0 0.0 0.0 0.0 0.0 0.0 0.0 0.0 0.0 0.0 0.0 0.0 0.0 0.0 0.0 0.0 0.0 0.0 0.0 0.0 0.0 0.0 0.0 0.0 0.0 0.0 0.0 0.0 0.0 0.0 0.0 0.0 0.0 0.0 0.0 0.0 0.0 0.0 0.0 0.0 0.0 0.0 0.0 0.0 0.0 0.0 0.0 0.0)
Qmult=(0.0 0.0 0.0 0.0 0.0 0.0 0.0 0.0 0.0 0.0 0.0 0.0 0.0 0.0 0.0 0.0 0.0 0.0 0.0 0.0 0.0 0.0 0.0 0.0 0.0 0.0 0.0 0.0 0.0 0.0 0.0 0.0 0.0 0.0 0.0 0.0 0.0 0.0 0.0 0.0 0.0 0.0 0.0 0.0 0.0 0.0 0.0 0.0 0.0 0.0 0.0 0.0 0.0 0.0 0.0 0.0 0.0 0.0 0.0 0.0 0.0 0.0 0.0 0.0 0.0 0.0 0.0 0.0 0.0 0.0 0.0 0.0 0.0 0.0 0.0 0.0 0.0 0.0 0.0 0.0 0.0 0.0 0.0 0.0 0.0 0.0 0.0 0.0 0.0 0.0 0.0 0.0 0.0 0.0 0.0 0.0 0.0 0.0 0.0 0.0)
New LoadShape.LS_15 npts=24 interval=0.000833 Pmult=(0.7169816810261455 0.7277574012282175 0.7123921253184347 0.7165126787126714 0.72453056985758 0.7138257038977797 0.7169649279329342 0.7175235596869676 0.7162261231837898 0.7178215238194713 0.7132955997357172 0.7132891488891018 0.7107913849139577 0.7221995775290373 0.7223147194775895 0.7287538111578252 0.723078909401442 0.7278735641595852 0.7150757356458944 0.7251814633078091 0.730608299044312 0.7276578152974293 0.7183247181957323 0.7198219923216047 0.7244922202123691 0.7213499642598622 0.7213027156730003 0.7238392887335462 0.7166723405808487 0.7111786146414991 0.7308924385405638 0.724174192779041 0.7277035137070426 0.7207801421694193 0.717600411642455 0.6857009261902645 0.6889129684205466 0.6935043537374547 0.6912156967230618 0.6882734571597605 0.6912722946539772 0.6872519611332393 0.6842320707647692 0.6893918130481608 0.987889625376455 0.9771702154218517 0.9905915776772021 0.992530758283825 0.9912835733851874 0.9842987239895735 0.9906116442870463 0.9894447007708155 1.0 0.9855751503731625 0.986922703661589 0.994631008168668 0.9903222939445122 0.9931183826788086 0.987930378059637 0.9869935213773507 0.9825389394371056 0.9860724210831184 0.9820091988669639 0.9894936351591426 0.9814252493366479 0.9608052838102565 0.9585300622507604 0.9604051922459909 0.9600058527168122 0.9576673284246805 0.9679621010634037 0.9606662752057297 0.9575609510941389 0.9577398594014205 0.9639984141629655 0.9566983539753059 0.9676014838782429 0.9528653377702614 0.9578214067743673 0.9701910133725955 0.9603723566330783 0.9631157760894712 0.960803374654245 0.9689292635569827 0.9639150860206486 0.9565625041554776 0.9718650571643599 0.9571452648136748 0.9689536564456365 0.9505116039124039 0.9577623585012521 0.9658874530305528 0.9630582612716669 0.9591565375105016 0.9665451182740578 0.96802184653815 0.9602011160985919 0.9532440266714021 0.9572215346469187 0.9378737736262729)
Qmult=(0.7169816810261455 0.7277574012282175 0.7123921253184347 0.7165126787126714 0.72453056985758 0.7138257038977798 0.7169649279329343 0.7175235596869676 0.7162261231837898 0.7178215238194713 0.7132955997357173 0.7132891488891019 0.7107913849139577 0.7221995775290373 0.7223147194775896 0.7287538111578253 0.7230789094014421 0.7278735641595852 0.7150757356458944 0.7251814633078091 0.730608299044312 0.7276578152974293 0.7183247181957323 0.7198219923216048 0.7244922202123693 0.7213499642598623 0.7213027156730003 0.7238392887335463 0.7166723405808488 0.7111786146414992 0.7308924385405638 0.724174192779041 0.7277035137070427 0.7207801421694194 0.717600411642455 0.6857009261902646 0.6889129684205467 0.6935043537374547 0.6912156967230618 0.6882734571597605 0.6912722946539772 0.6872519611332393 0.6842320707647692 0.6893918130481609 0.987889625376455 0.9771702154218518 0.9905915776772022 0.992530758283825 0.9912835733851874 0.9842987239895735 0.9906116442870463 0.9894447007708155 1.0 0.9855751503731626 0.986922703661589 0.9946310081686681 0.9903222939445122 0.9931183826788086 0.9879303780596371 0.9869935213773507 0.9825389394371056 0.9860724210831185 0.9820091988669639 0.9894936351591426 0.981425249336648 0.9608052838102566 0.9585300622507604 0.9604051922459909 0.9600058527168123 0.9576673284246805 0.9679621010634037 0.9606662752057298 0.9575609510941389 0.9577398594014205 0.9639984141629656 0.9566983539753059 0.967601483878243 0.9528653377702614 0.9578214067743674 0.9701910133725955 0.9603723566330784 0.9631157760894713 0.960803374654245 0.9689292635569827 0.9639150860206486 0.9565625041554776 0.9718650571643599 0.9571452648136748 0.9689536564456365 0.9505116039124039 0.9577623585012522 0.9658874530305529 0.9630582612716669 0.9591565375105017 0.9665451182740578 0.96802184653815 0.9602011160985919 0.9532440266714021 0.9572215346469187 0.9378737736262729)
New LoadShape.LS_16 npts=24 interval=0.000833 Pmult=(0.0 0.0 0.0 0.0 0.0 0.0 0.0 0.0 0.0 0.0 0.0 0.0 0.0 0.0 0.0 0.0 0.0 0.0 0.0 0.0 0.0 0.0 0.0 0.0 0.0 0.0 0.0 0.0 0.0 0.0 0.0 0.0 0.0 0.0 0.0 0.0 0.0 0.0 0.0 0.0 0.0 0.0 0.0 0.0 0.0 0.0 0.0 0.0 0.0 0.0 0.0 0.0 0.0 0.0 0.0 0.0 0.0 0.0 0.0 0.0 0.0 0.0 0.0 0.0 0.0 0.0 0.0 0.0 0.0 0.0 0.0 0.0 0.0 0.0 0.0 0.0 0.0 0.0 0.0 0.0 0.0 0.0 0.0 0.0 0.0 0.0 0.0 0.0 0.0 0.0 0.0 0.0 0.0 0.0 0.0 0.0 0.0 0.0 0.0 0.0)
Qmult=(0.0 0.0 0.0 0.0 0.0 0.0 0.0 0.0 0.0 0.0 0.0 0.0 0.0 0.0 0.0 0.0 0.0 0.0 0.0 0.0 0.0 0.0 0.0 0.0 0.0 0.0 0.0 0.0 0.0 0.0 0.0 0.0 0.0 0.0 0.0 0.0 0.0 0.0 0.0 0.0 0.0 0.0 0.0 0.0 0.0 0.0 0.0 0.0 0.0 0.0 0.0 0.0 0.0 0.0 0.0 0.0 0.0 0.0 0.0 0.0 0.0 0.0 0.0 0.0 0.0 0.0 0.0 0.0 0.0 0.0 0.0 0.0 0.0 0.0 0.0 0.0 0.0 0.0 0.0 0.0 0.0 0.0 0.0 0.0 0.0 0.0 0.0 0.0 0.0 0.0 0.0 0.0 0.0 0.0 0.0 0.0 0.0 0.0 0.0 0.0)
New LoadShape.LS_17 npts=24 interval=0.000833 Pmult=(0.7434618836598116 0.746302393542002 0.7449076253109868 0.7485725182618105 0.7402907506025325 0.751897921089102 0.7539906075300804 0.7447779317399087 0.7462803187662311 0.7453135691877942 0.7506289499189785 0.7478325614696748 0.7479054815649777 0.7495488936662894 0.7608448599492826 0.7523106413666287 0.7588819437318532 0.7577391898657871 0.7489176476245192 0.7563800885257227 0.7548750548540611 0.7486417648854923 0.756057312737676 0.751415431565167 0.7457017838014078 0.7485552995218361 0.7487430358034253 0.7460412026011903 0.7525860124061926 0.7432479065985809 0.756194455134767 0.7513386702930385 0.7490712025774628 0.7513876561129715 0.7485485745317829 0.7176464687421401 0.7133061727467502 0.712895964643336 0.7132868677378296 0.7151726738942986 0.719131065314026 0.7079939548673685 0.7126114905619327 0.7179280269270294 0.9928622185411644 0.9904671183041571 0.9929874243629216 1.0 0.9829593333790402 0.9903753314994359 0.9888063400847306 0.9913791827740355 0.9838290606312845 0.9898611874673505 0.9907994537303593 0.9891170343758477 0.9896882296295784 0.9818042585100129 0.9795389457408844 0.9750543609074297 0.9713412746082358 0.9715184091387713 0.9755345758123299 0.9778711238776973 0.980263632562124 0.954462107061138 0.9466933503006919 0.9581486259499595 0.9578593833887658 0.9515664276233977 0.955178247819375 0.956615749743745 0.9539615119203164 0.9528170487312511 0.9377634501980091 0.9555657495510035 0.949229415907933 0.9483562491939587 0.9518548744658762 0.9545304172914658 0.9534386105223206 0.953858708474906 0.9453006842696401 0.9555705267380605 0.9551725001248786 0.9583653741499776 0.9558621054816188 0.9555527926458606 0.951426073587865 0.9573656502121095 0.9591023279840174 0.9528391680781033 0.951457737868167 0.9577808148670857 0.9547324118948768 0.9561082391157445 0.9529527118099259 0.9438147753065435 0.9370764265558387 0.9430617366047623)
Qmult=(0.7434618836598115 0.7463023935420019 0.7449076253109868 0.7485725182618106 0.7402907506025325 0.751897921089102 0.7539906075300804 0.7447779317399087 0.7462803187662311 0.7453135691877941 0.7506289499189785 0.7478325614696749 0.7479054815649776 0.7495488936662894 0.7608448599492826 0.7523106413666287 0.7588819437318532 0.7577391898657873 0.7489176476245193 0.7563800885257227 0.7548750548540611 0.7486417648854923 0.7560573127376761 0.751415431565167 0.7457017838014078 0.7485552995218361 0.7487430358034252 0.7460412026011902 0.7525860124061926 0.743247906598581 0.756194455134767 0.7513386702930385 0.7490712025774628 0.7513876561129715 0.7485485745317829 0.7176464687421401 0.7133061727467502 0.7128959646433362 0.7132868677378296 0.7151726738942986 0.719131065314026 0.7079939548673686 0.7126114905619327 0.7179280269270294 0.9928622185411644 0.9904671183041571 0.9929874243629216 1.0 0.9829593333790402 0.9903753314994359 0.9888063400847306 0.9913791827740355 0.9838290606312845 0.9898611874673505 0.9907994537303593 0.9891170343758479 0.9896882296295784 0.9818042585100129 0.9795389457408843 0.9750543609074297 0.9713412746082358 0.9715184091387713 0.9755345758123298 0.9778711238776974 0.980263632562124 0.954462107061138 0.9466933503006919 0.9581486259499595 0.9578593833887656 0.9515664276233977 0.955178247819375 0.956615749743745 0.9539615119203164 0.9528170487312512 0.937763450198009 0.9555657495510036 0.949229415907933 0.9483562491939587 0.9518548744658762 0.9545304172914658 0.9534386105223207 0.9538587084749061 0.9453006842696401 0.9555705267380604 0.9551725001248786 0.9583653741499776 0.9558621054816188 0.9555527926458607 0.951426073587865 0.9573656502121095 0.9591023279840175 0.9528391680781032 0.951457737868167 0.9577808148670858 0.9547324118948769 0.9561082391157445 0.9529527118099259 0.9438147753065435 0.9370764265558387 0.9430617366047623)
New LoadShape.LS_18 npts=24 interval=0.000833 Pmult=(0.763370785336027 0.7648069740158662 0.7778923734615945 0.7559907244943024 0.7583926348076754 0.7659810835358534 0.7541091497594351 0.7593617269787118 0.7542907946989578 0.7643457628692328 0.7595744368609931 0.7604786515497006 0.7498470702487626 0.7661095654764809 0.7673889895834691 0.7605515386461666 0.7600669154384136 0.7738998646677068 0.7651744673880476 0.7613075357037329 0.7642991486709282 0.7666499980205056 0.7609846302251598 0.7644333105054474 0.771914067106826 0.7747477822743167 0.7681532398628996 0.7702047399754146 0.7653744428173521 0.769956849869881 0.7686474797384342 0.7624120060855356 0.7662477540049836 0.759148648912305 0.7681244766834745 0.7490972958933402 0.7306169609024031 0.7390061552359988 0.7365715030153565 0.7351664390000524 0.7336910690513844 0.7370886887481575 0.7309452957043385 0.7336583909430505 0.9884449167116236 0.9823552378177747 0.9884016555933139 1.0 0.9759306005615971 0.9810463981844793 0.9765831437741238 0.9769521703320158 0.9841431164779719 0.9723822135130584 0.9768649922626116 0.9794076681845088 0.9695197274822465 0.9760506353230013 0.9817893506297093 0.9669042566822771 0.9685497354003326 0.9710638689387106 0.9708450098799585 0.967980711755184 0.9665803816003968 0.9506586575933321 0.9513747070469808 0.9474476324220578 0.958436928981827 0.9553168135595111 0.9513583373569232 0.9527093889321041 0.9562086781552702 0.9523452002318921 0.9526233879442696 0.947087706090458 0.9451980130643598 0.9596013390815135 0.9540090067359761 0.9407724146098396 0.9499968602419049 0.9747657670746254 0.9483204584584805 0.9578850441646208 0.95981804898726 0.9478603267397822 0.9659559756451763 0.9604905603472397 0.9514584342423117 0.9557849062316209 0.9491486720868716 0.9575582061329588 0.9537937417938913 0.9476505154563741 0.9486110192917712 0.9555587185184887 0.9418211256510812 0.934857251286424 0.9164436862123192 0.9260414467399768)
...